%nprocshared=2
%mem=6GB
%chk=C3.chk
# opt=modredundant b3lyp/3-21g geom=connectivity

Title Card Required

0 1
 C                 -0.32532500   -1.15733300    0.36566400
 C                 -1.20765400   -0.68248100   -0.71236700
 C                 -1.20798400    0.68359500   -0.71081900
 C                 -0.32579500    1.15636100    0.36828400
 H                 -0.33726300   -2.19175900    0.68909700
 H                 -1.66137400   -1.32767300   -1.45297700
 H                 -1.66193900    1.33025800   -1.45000600
 H                 -0.33806700    2.18997500    0.69427800
 C                 -0.31757900   -0.00164600    1.37616400
 H                 -1.23497500   -0.00242600    1.97646800
 H                  0.55757000   -0.00218000    2.03378500
 C                  0.93942794   -0.86233482   -0.15718977
 H                  1.46537500   -1.23269000   -1.34860000
 H                  2.14181800   -1.21286800    0.33123000
 C                  0.93856818    0.86310927   -0.15649135
 H                  2.14253000    1.21624000    0.32941300
 H                  1.46093300    1.23301300   -1.34825200

 1 2 1.0 5 1.0 9 1.0
 2 3 2.0 6 1.0
 3 4 1.0 7 1.0
 4 8 1.0 9 1.0
 5
 6
 7
 8
 9 10 1.0 11 1.0
 10
 11
 12 13 1.0 14 1.0 15 1.0
 13
 14
 15 16 1.0 17 1.0
 16
 17

B 4 15 F
B 1 12 F

